Bi2Pd
_chemical_name_common                  'Bi2Pd'
_cell_length_a                         3.3234
_cell_length_b                         3.3234
_cell_length_c                         14.9191
_cell_angle_alpha                      90.0
_cell_angle_beta                       90.0
_cell_angle_gamma                      90.0
_space_group_name_H-M_alt              'P 1'
_symmetry_Int_Tables_number            1

loop_
_space_group_symop_operation_xyz
   'x, y, z'

loop_
   _atom_site_label
   _atom_site_occupancy
   _atom_site_fract_x
   _atom_site_fract_y
   _atom_site_fract_z
   _atom_site_adp_type
   _atom_site_B_iso_or_equiv
   _atom_site_type_symbol
   Bi1        1.0     0.500000     0.500000     0.37653    Biso  1.000000 Bi
   Bi2        1.0     0.500000     0.500000     0.62347    Biso  1.000000 Bi
   Pd1        1.0     0.000000     0.000000     0.50000    Biso  1.000000 Pd
